     248
 i =     6704, time =     3352.000, E =     -1627.1687822112
  O         8.0129543931        4.7066065115        6.4998938949
  H         8.7510658599        4.4513912199        7.1583757692
  H         7.5737586724        3.8532074126        6.3643122661
  O         4.4889889529       11.6979624807        6.8002588857
  H         4.0192634619       12.1271440917        7.5654534807
  H         4.1670386033       10.7669498813        6.7262959335
  O         6.3340769595       11.6024298440       12.2734788760
  H         6.2314963853       12.6244723379       12.4375294194
  H         7.2052990384       11.3170134785       12.5875034725
  O         5.1050533559        3.9750556169       11.0151498178
  H         5.1147208623        2.9893990739       10.8708265054
  H         6.0161510155        4.1947982733       11.2221646617
  O         5.4167006717       11.9199991182        3.6997758321
  H         5.1404525288       12.0841864382        4.6382022844
  H         4.6740634465       11.4846224879        3.2651649600
  O         6.5223846612       -0.2962849595        1.6215978168
  H         6.3546414532       12.9182834843        2.2121585914
  H         7.4460835336       -0.3514296058        1.3626336160
  O         0.9100513204       13.8395945079       12.8398268365
  H         1.0841131077       14.6038480698       13.4032683337
  H         0.6313421475        0.4891345061       12.0760828649
  O        10.8118044610        9.9393732307        6.3892542763
  H        11.6816131632       10.3410872968        6.3324362015
  H        10.8658592016        9.1751621231        7.0107310489
  O        -0.7083914666        1.4388410922       10.4312003868
  H        -0.5674187747        2.3120804199       -3.9076333581
  H        12.4282415740        1.4188593391       10.9793117141
  O         8.8642190742        8.2487893501        8.9652772412
  H         8.2202345293        7.8620290632        9.6083613092
  H         8.3463226574        8.4761467918        8.1821906550
  O        12.7879650878       11.7024665036        6.6983942036
  H        13.1527651519       12.1723948340        5.9004081512
  H        13.5582101726       11.3913686086        7.1971338708
  O         8.7667903096        5.9765718625        4.2741954747
  H         8.0705824245        6.2793029658        3.6048441582
  H         8.2452347088        5.5520170667        5.0481821688
  O        12.2824324230        7.5445956003        2.1747681169
  H        11.4183077226        7.8846586659        2.0306974240
  H        12.3006991648        6.5920367372        2.4338982370
  O         4.7414430332        5.1295337136        4.1823556838
  H         4.7029655762        4.9854450874        3.2491021902
  H         4.5312888461        4.2803593394        4.5979327221
  O         7.6629846450        5.3433657962       11.3941243025
  H         7.2700963253        6.0347679170       10.8088789917
  H         7.4812301484        5.6507462807       12.3039053601
  O         6.4883903563        2.1107535574        2.8196865216
  H         6.7637749683        1.9131008833        3.7533880694
  H         6.3268952870        1.2144261750        2.4431540368
  O         3.4401177627        9.3312453447        6.5566500976
  H         3.4055761399        8.9834930397        5.6043913240
  H         2.7392689371        8.7672607988        6.9713195850
  O         9.1752003546        2.7150347349       11.1829060945
  H         8.6938283055        3.5446632185       11.2596485040
  H         9.6821255681        2.8895092222       10.3721626058
  O         1.3727136710        1.9947768728       14.4672252071
  H         2.3688787382        2.0525333372       14.4273359937
  H         0.9655741194        2.7716559536       14.0527935764
  O         5.7836835051        0.4572909727       12.4214028982
  H         6.3760414411        1.1998876229       12.6769732841
  H         4.9337632496        0.6645484855       12.8510121662
  O         7.8818922412       12.1529730350        5.5115800750
  H         7.7533008442       13.1151932843        5.5523811336
  H         8.0131414238       11.8897987335        4.5969369165
  O         9.1219737145       12.1108418871       12.3717764647
  H         9.4238986771       12.5412224802       13.1991533763
  H         9.1423174359       12.8583138081       11.6935264769
  O         1.1292673922        6.3214097900        3.8033925477
  H         0.9690657472        5.9305947129        2.9178024920
  H         0.8208554435        7.2681243461        3.7057514041
  O         5.4345900542        6.4880636955        6.7395733052
  H         5.2906190502        6.4638974456        5.7782986243
  H         6.1359671166        5.9002524003        7.0395013626
  O        11.3058653121        2.0685860121       13.2796996707
  H        11.0925142743        1.4373264699       13.9167779249
  H        10.4461652282        2.1815897377       12.8100030911
  O         7.3564196564        2.7404959974       13.0677198055
  H         6.9724405218        3.3768972869       13.7137385130
  H         8.1749990979        2.4524813602       13.4759946023
  O        12.0037731763        4.5483672700        2.3693590598
  H        12.6197617647        3.8637430621        2.6206339578
  H        12.3411677821        4.7022977942        1.4570904030
  O         0.8267648452        7.9513278558        0.7247844656
  H        13.9138731899        7.7476164992        1.2368691041
  H        15.3217400799        7.1321174994        0.7866411351
  O         7.0220365320        8.9333576593        6.8124610928
  H         6.3720697075        8.2236876595        6.8304333416
  H         7.4811142846        9.0027084168        5.9840826771
  O         7.1421240708        6.8854532082        2.3799076087
  H         6.6507477250        6.1822943879        1.8489310219
  H         7.9351495505        7.1360785681        1.8727553690
  O        13.4734416858       13.4207363750        3.2100076046
  H        13.5298351932       13.2135643972        2.2224768529
  H        12.5449075051       -0.6398116048        3.4161247731
  O        12.8238128494        4.2327485491       13.8498186374
  H        -0.8102463144        4.6841456093       12.9960772192
  H        12.2036887844        3.5019732351       13.6295036205
  O         1.3219807224       11.2123257804        7.6676814675
  H         1.6651550435       10.5413156650        7.0251156288
  H         1.7309679294       12.0926787159        7.5321769299
  O         3.7093142504       10.2397482284        1.7458254043
  H         3.7291548504        9.9964132683        0.7467717834
  H         2.8152377440       10.5080685442        1.9682841256
  O         4.1889505636        1.8418950354        0.6383778420
  H         4.5461312969        1.3487701651        1.4023596395
  H         4.5246491296        2.6995336065        0.8951575200
  O         9.1012478088        8.6062704115        4.7157030274
  H         9.8605574406        8.9550878010        5.2743772082
  H         8.9072345241        7.7506617251        5.0934371124
  O         4.2177484825        2.0067367054        6.4332423144
  H         3.9025615622        1.3757771838        5.7507938497
  H         5.1648094369        1.7353615822        6.5719442812
  O         4.9000624985        7.4561332235       12.6846639386
  H         4.9258310525        6.6303130053       -0.7696943752
  H         4.0988965795        7.3884882160       12.0392258482
  O        10.6134453384        0.6010518927        6.8561095995
  H         9.6400578752        0.8254067935        6.6344612427
  H        10.9119600865        1.4167448254        7.2034406037
  O         6.7554530947        9.7063836136        1.9778705366
  H         5.7986894403        9.8115349325        1.9387495579
  H         6.8091180027        8.8022133571        2.1803357882
  O         5.9368950009       10.4217923661        9.5333363119
  H         6.3316505620       10.9845992587       10.2321938515
  H         4.9791806137       10.3904855159        9.8222789644
  O        11.3678159326        5.2650087568        5.7442146255
  H        11.0313308771        4.6671841426        6.4610540069
  H        12.3516952280        5.1323027383        5.7970896532
  O         3.1606694793       -0.5325993277        8.5059674803
  H        16.6072230266        0.2989693450        8.1922717767
  H         3.9192441635       -0.2425402569        9.0423022858
  O        10.9050968493       12.5651771997        4.3545400299
  H        10.1738185877       11.9291172377        4.0514176908
  H        10.3983913435       13.3278422744        4.6058759513
  O         1.4148724407       11.9887639723       10.6570231397
  H         1.7832754862       12.5228339082        9.9053688593
  H         1.4452129958       12.6161077327       11.3767152675
  O         9.3232605449       13.8150706325       10.3874198354
  H        10.2738424971       13.7862788039       10.2696675928
  H         8.9915445707       14.7016058847       10.4376933336
  O         0.8342663837       10.4035519583        2.0240312477
  H         1.0507929727        9.5917399001        1.5473233537
  H         0.5753950266       10.1058046332        2.9144073619
  O         2.0235703418        3.5832590140        7.8186296662
  H         2.6628597164        4.1485510257        8.2187452811
  H         2.4483986198        2.9742851136        7.1559866018
  O        13.0093504442        8.1990473556       -1.2807392766
  H        -0.7433883915        9.1657827718       12.5159447174
  H        -0.2580721810        7.9065347106       -0.6177514483
  O         9.2800905430        5.5234123248        0.3010554164
  H         9.9237449315        5.0779752624       -0.1690119456
  H         9.0712292000        4.9390112515        1.0476576923
  O        -3.4681361824        6.3504886572       11.7429607250
  H        -4.1711084369        5.8414500085       11.3552640836
  H        -2.5057350255        6.0956579189       11.4543204805
  O         9.7210388607        8.5797519851        2.0554764608
  H         9.5817827956        9.5050764206        2.0232575994
  H         9.5593196184        8.3996609108        3.0236884428
  O         7.8522442645        8.3566905145       13.1707853167
  H         7.3373012391        8.9055127405       13.8563787082
  H         7.2520836724        8.2363561348       -1.5144789780
  O         2.0735491239        4.1889922457       12.3937105044
  H         1.8182623203        5.1062337914       12.1072537767
  H         3.0552666277        4.1653228710       12.3215237494
  O         2.7724828629        7.2648962210       10.8727544262
  H         2.7740740538        8.2073894598       10.5873962808
  H         2.9983726761        6.7843386965        9.9966312734
  O         3.8327837061        5.5550404657        8.9651076617
  H         4.5955199879        5.2096781577        9.4754913582
  H         4.2580859641        6.1451733252        8.2636297104
  O         1.0326690526        7.9330136455        6.7581230318
  H         0.8047785344        6.9974339229        6.7340542982
  H         0.4674435704        8.1242222224        7.5058828335
  O         8.9668330272       11.4037568335        2.6012071525
  H         8.0037255663       11.2731433158        2.4962075610
  H         9.2231449441       12.1980536316        2.0738013157
  O        10.8659933686        1.9310050672        4.3576595821
  H        11.4555081523        1.4959096496        3.7170314144
  H        11.0423073861        1.4606512867        5.1796196718
  O         0.2572722485        5.2748045720        6.3606121583
  H         0.9829506964        4.8104584242        6.8813858194
  H         0.6283049749        5.3718064957        5.4403792808
  O        11.4774917941       10.5749951724       13.0322185543
  H        11.8663449819       11.0292793884       13.8226564824
  H        10.7295175529       11.2014855256       12.7794651202
  O         8.9473293499        2.9642962916        2.0085490702
  H         8.0898860930        2.7223722933        2.4532271798
  H         9.2814762598        2.0209695511        1.9247138846
  O        11.7866940352       13.0459165590       10.0498382123
  H        12.2422289868       12.2054715248       10.1869788339
  H        12.3975780157       13.7815750459        9.8569931662
  O         3.4317594435       10.1585274748       10.4964954806
  H         2.6849063111       10.7516430321       10.4152173209
  H         3.5758226271       10.1508956957       11.4171423183
  O         0.1165546918        2.0654567279        3.3110224076
  H        -0.1670946383        1.0901315029        3.3285825693
  H         0.4696739948        2.2968812602        2.4198134052
  O        10.9448571259        7.3972118474        7.5113073896
  H        10.9935392419        6.7304689287        6.8078946793
  H        10.1313981274        7.3559912028        8.0177931159
  O         4.2985257479       10.0599532911       -0.6617674241
  H         5.1096521839       10.6287763362       12.9917060502
  H         4.4111425382        9.0825830570       -0.6286211353
  O         6.5266906226        8.0935752894       10.7597962440
  H         5.7473877869        8.0493692642       11.3361925849
  H         6.3405098166        8.8452020296       -3.7920413342
  O         5.7870113413       13.6908638674        9.4486302373
  H         5.9360140377       -0.0859002409       10.3825397494
  H         6.1899021336        0.5629017649        8.9744825147
  O        13.2830407767        8.6184584436        8.5973523633
  H        12.5314720446        8.0457432065        8.4237979789
  H        12.9321384911        9.2346658277        9.3653685206
  O        14.0229236182        8.7667676520        4.3717347343
  H        14.4212113855        8.4991054785        5.2427835339
  H        13.1179792296        8.4101649375        4.3543994352
  O         8.8488002070       11.4872495466        8.8439952279
  H         9.2805996610       10.7758643025        9.3620634809
  H         8.7966128592       12.2178414081        9.4712733067
  O        -0.6969833429        5.5199704894       11.4264699165
  H        -0.4755474696        6.4876869659       11.4161657220
  H        -0.6199869683        5.2523842218       10.5074894485
  O        14.9032171947        0.2635622669        7.2479532355
  H        15.2541463588        0.3656671358        6.2989825438
  H        14.0319171407        0.7392668946        7.2805098088
  O        12.9735111352       10.7615512098       10.7816848445
  H        13.7730939977       11.3479645919       10.8041531974
  H        12.5120666000       10.7986469361       11.6946941261
  O        13.2864668844       12.1638284794        0.6972700694
  H        -0.0748463305       12.4786072985       13.8396502511
  H        13.8466388269       11.4769721547        1.0849706895
  O        13.4743816070        3.9257257547        9.1946210447
  H        12.6788942439        3.8269877580        8.5977756588
  H         0.2842641727        3.7745776342        8.5935142417
  O         3.8859948667        8.3716989178        3.7528167248
  H         3.3217348348        7.5731863242        3.6374169355
  H         3.9549841276        8.9348667135        3.0098532184
  O         2.0318403865        0.5358712437        4.6320788589
  H         2.1492654196       13.8648652246        3.8831405503
  H         1.5173419939        1.3143767911        4.3330889814
  O         1.8319871753        5.5353016992       14.9711526537
  H         2.7709707869        5.4515296509        1.2073717872
  H         1.6691510651        4.9306790897       14.2227060019
 Na        10.3362945255        4.2369994668        3.8888482738
 Na         6.7455906884       11.0652435370        7.3110421161
 Na        10.1873392979        7.8278988993       13.7302101576
 Na        10.6403485835       12.2070787123        7.4759441047
 Cl         7.4514161317        1.3463874068        6.3486032808
 Cl        10.4889106637        3.6501856376        8.3586717121
 Cl         5.0227502933        5.0712278341        0.8788129864
 Cl         9.5512842892        0.0155231083        0.9708337149
